Circuit: * C:\Users\javie\Documents\LTspiceXVII\lib\sub\TCLib\Base Circuits\TC40 - BJT Ideal.asc

Direct Newton iteration for .op point succeeded.
Semiconductor Device Operating Points:
                        --- Diodes ---
Name:      d1          d8          d2          d7          d6
Model:   dideal      dideal    dideal_vce  dideal_vce  dideal_vbe
Id:      1.01e+00    9.90e-01    1.00e+00    1.00e+00    7.00e-08
Vd:      1.01e-06    9.90e-07    3.00e-01    3.00e-01    7.00e-01
Req:     1.00e+06    1.00e+06    1.00e+06    1.00e+06    1.00e-07
CAP:     0.00e+00    0.00e+00    0.00e+00    0.00e+00    0.00e+00

Name:      d5
Model: dideal_vbe
Id:      1.00e-03
Vd:      7.00e-01
Req:     1.00e+06
CAP:     0.00e+00



Date: Thu May 25 02:35:43 2023
Total elapsed time: 0.088 seconds.

tnom = 27
temp = 27
method = trap
totiter = 5
traniter = 0
tranpoints = 0
accept = 0
rejected = 0
matrix size = 16
fillins = 8
solver = Alternate
Matrix Compiler1: 1.23 KB object code size
Matrix Compiler2: 1.36 KB object code size
